Version 4
SHEET 1 1372 680
WIRE -1552 80 -1648 80
WIRE -1232 80 -1472 80
WIRE -1104 80 -1232 80
WIRE -896 80 -1040 80
WIRE -800 80 -896 80
WIRE -1232 96 -1232 80
WIRE -1280 112 -1392 112
WIRE -1648 128 -1648 80
WIRE -896 144 -896 80
WIRE -800 144 -800 80
WIRE -1280 160 -1344 160
WIRE -1344 176 -1344 160
WIRE -1648 272 -1648 208
WIRE -1392 272 -1392 112
WIRE -1392 272 -1648 272
WIRE -1344 272 -1344 256
WIRE -1344 272 -1392 272
WIRE -1232 272 -1232 176
WIRE -1232 272 -1344 272
WIRE -1072 272 -1232 272
WIRE -896 272 -896 208
WIRE -896 272 -1072 272
WIRE -800 272 -800 224
WIRE -800 272 -896 272
WIRE -1072 336 -1072 272
FLAG -1072 336 0
FLAG -800 80 OUT
FLAG -1648 80 IN
SYMBOL cap -912 144 R0
SYMATTR InstName C1
SYMATTR Value 4.7µ
SYMBOL ind -1568 96 R270
WINDOW 0 32 56 VTop 2
WINDOW 3 5 56 VBottom 2
SYMATTR InstName L1
SYMATTR Value 175µ
SYMBOL diode -1104 96 R270
WINDOW 0 32 32 VTop 2
WINDOW 3 0 32 VBottom 2
SYMATTR InstName D1
SYMATTR Value MyDiode
SYMBOL res -816 128 R0
SYMATTR InstName R1
SYMATTR Value {X}
SYMBOL voltage -1648 112 R0
WINDOW 123 0 0 Left 0
WINDOW 39 0 0 Left 0
SYMATTR InstName V1
SYMATTR Value 12
SYMBOL sw -1232 80 R0
WINDOW 3 20 88 Left 2
SYMATTR InstName S1
SYMATTR Value MySwitch
SYMBOL voltage -1344 160 R0
WINDOW 123 0 0 Left 0
WINDOW 39 0 0 Left 0
WINDOW 0 31 50 Left 2
SYMATTR InstName V2
SYMATTR Value PULSE(0 5 0 0.1u 0.1u 5u 10.2u)
TEXT -1408 -304 Left 2 !.tran 3ms
TEXT -1408 -272 Left 2 !.model MySwitch SW(Ron=0.1 Roff=100Meg Vt=1)
TEXT -1408 -240 Left 2 !.model MyDiode D(Ron=0.1 Roff=100Meg Vfwd=0)
TEXT -1408 -336 Left 2 ;SPECIFICHE DEL PROGETTO
TEXT -1504 400 Left 2 ;pulse(Vmin,Vmax,delay,trasitorioup, transitoriodown,tempo up del clock, periodo totale)
TEXT -1408 -208 Left 2 !.step param X 250 500 20
TEXT -1408 -176 Left 2 !.meas Pout AVG V(OUT)*I(R1)\n.meas Pin AVG V(IN)*I(V1)\n.meas eff param -Pout/Pin\n.meas Gain AVG(V(OUT)/V(IN)) from 2m to 3m
TEXT -1392 -592 Left 2 ;ctrl + L per vedere il log e il valore di efficienza calcolata
TEXT -1392 -552 Left 2 ;il calcolo del guadagno va fatto dopo il trasnitorio per evitare di avere una valore falsato
