Version 4
SHEET 1 1372 680
WIRE -272 -32 -336 -32
WIRE 240 -32 -192 -32
WIRE 256 -32 240 -32
WIRE 368 -32 336 -32
WIRE 464 -32 368 -32
WIRE -336 16 -336 -32
WIRE 240 32 240 -32
WIRE 368 32 368 -32
WIRE 464 32 464 -32
WIRE -208 64 -208 16
WIRE -336 160 -336 96
WIRE -256 160 -256 16
WIRE -256 160 -336 160
WIRE -208 160 -208 144
WIRE -208 160 -256 160
WIRE 240 160 240 96
WIRE 240 160 -208 160
WIRE 368 160 368 96
WIRE 368 160 240 160
WIRE 464 160 464 112
WIRE 464 160 368 160
WIRE 240 208 240 160
FLAG 240 208 0
FLAG 464 -32 OUT
FLAG -336 -32 IN
SYMBOL cap 352 32 R0
SYMATTR InstName C1
SYMATTR Value 4.7µ
SYMBOL ind 240 -16 R270
WINDOW 0 32 56 VTop 2
WINDOW 3 5 56 VBottom 2
SYMATTR InstName L1
SYMATTR Value 175µ
SYMBOL diode 256 96 R180
WINDOW 0 24 64 Left 2
WINDOW 3 24 0 Left 2
SYMATTR InstName D1
SYMATTR Value MyDiode
SYMBOL res 448 16 R0
SYMATTR InstName R1
SYMATTR Value {X}
SYMBOL voltage -336 0 R0
WINDOW 123 0 0 Left 0
WINDOW 39 0 0 Left 0
SYMATTR InstName V1
SYMATTR Value 24
SYMBOL sw -288 -32 R270
SYMATTR InstName S1
SYMATTR Value MySwitch
SYMBOL voltage -208 48 R0
WINDOW 123 0 0 Left 0
WINDOW 39 0 0 Left 0
SYMATTR InstName V2
SYMATTR Value PULSE(0 5 0 0.1u 0.1u 5u 10.2u)
TEXT -272 -416 Left 2 !.tran 3ms
TEXT -272 -384 Left 2 !.model MySwitch SW(Ron=0.1 Roff=100Meg Vt=1)
TEXT -272 -352 Left 2 !.model MyDiode D(Ron=0.1 Roff=100Meg Vfwd=0)
TEXT -272 -448 Left 2 ;SPECIFICHE DEL PROGETTO
TEXT -368 288 Left 2 ;pulse(Vmin,Vmax,delay,trasitorioup, transitoriodown,tempo up del clock, periodo totale)
TEXT -272 -320 Left 2 !.step param X list 200 160 120 80 40 30 20 10 8 6 4
TEXT -272 -288 Left 2 !.meas Pout AVG V(OUT)*I(R1)\n.meas Pin AVG V(IN)*I(V1)\n.meas eff param -Pout/Pin
TEXT -256 -704 Left 2 ;ctrl + L per vedere il log e il valore di efficienza calcolata
TEXT -256 -664 Left 2 ;il calcolo del guadagno va fatto dopo il trasnitorio per evitare di avere una valore falsato
