Version 4
SHEET 1 880 680
WIRE 400 -144 368 -144
WIRE 512 -144 464 -144
WIRE 624 -144 512 -144
WIRE -368 -64 -496 -64
WIRE -240 -64 -368 -64
WIRE 48 -64 -240 -64
WIRE 368 -32 368 -144
WIRE 512 -32 512 -144
WIRE 624 -32 624 -144
WIRE -496 -16 -496 -64
WIRE -240 -16 -240 -64
WIRE -368 0 -368 -64
WIRE 48 48 48 -64
WIRE -496 80 -496 64
WIRE -368 96 -368 64
WIRE -240 96 -240 64
WIRE -240 96 -368 96
WIRE 368 160 368 48
WIRE 512 160 512 32
WIRE 512 160 368 160
WIRE 624 160 624 48
WIRE 624 160 512 160
WIRE -368 176 -368 96
WIRE -256 176 -368 176
WIRE 48 176 48 128
WIRE 48 176 -192 176
WIRE 512 176 512 160
WIRE 48 240 48 176
WIRE 0 320 -112 320
WIRE -112 368 -112 320
WIRE 48 368 48 336
WIRE -112 464 -112 448
FLAG -496 80 0
FLAG 48 368 0
FLAG 512 176 0
FLAG -112 464 0
SYMBOL cap 496 -32 R0
SYMATTR InstName Co
SYMATTR Value 10µ
SYMBOL res 608 -48 R0
SYMATTR InstName Ro
SYMATTR Value 50
SYMBOL voltage -112 352 R0
WINDOW 123 0 0 Left 2
WINDOW 39 0 0 Left 2
SYMATTR InstName Clock
SYMATTR Value PULSE(0 10 0 1u 1u 5u 10.2u)
SYMBOL voltage -496 -32 R0
WINDOW 123 0 0 Left 2
WINDOW 39 0 0 Left 2
SYMATTR InstName Vi
SYMATTR Value 12
SYMBOL schottky 400 -160 M90
WINDOW 0 0 32 VBottom 2
WINDOW 3 32 32 VTop 2
SYMATTR InstName D
SYMATTR Value MBRS1100
SYMATTR Description Diode
SYMATTR Type diode
SYMBOL ind2 64 144 R180
WINDOW 0 36 80 Left 2
WINDOW 3 36 40 Left 2
SYMATTR InstName L1
SYMATTR Value 100µ
SYMBOL ind2 352 -48 R0
SYMATTR InstName L2
SYMATTR Value 900µ
SYMBOL nmos 0 240 R0
SYMATTR InstName M1
SYMATTR Value IRF510
SYMBOL schottky -192 192 M270
WINDOW 0 32 32 VTop 2
WINDOW 3 0 32 VBottom 2
SYMATTR InstName D1
SYMATTR Value MBRS1100
SYMATTR Description Diode
SYMATTR Type diode
SYMBOL cap -384 0 R0
SYMATTR InstName Cc
SYMATTR Value 3.3µ
SYMBOL res -256 -32 R0
SYMATTR InstName Rc
SYMATTR Value 330
TEXT -384 -240 Left 2 !.tran 2ms
TEXT 104 72 Left 2 !K1 L1  L2 0.99
