Version 4
SHEET 1 880 680
WIRE -480 -64 -528 -64
WIRE -416 -64 -480 -64
WIRE 48 -64 -336 -64
WIRE 160 -64 128 -64
WIRE 272 -64 224 -64
WIRE 384 -64 272 -64
WIRE -400 16 -400 -16
WIRE -528 48 -528 -64
WIRE 48 48 48 -64
WIRE 128 48 128 -64
WIRE 272 48 272 -64
WIRE 384 48 384 -64
WIRE -352 112 -352 -16
WIRE -528 240 -528 128
WIRE -352 240 -352 192
WIRE -352 240 -528 240
WIRE -208 240 -352 240
WIRE 48 240 48 128
WIRE 48 240 -208 240
WIRE 128 240 128 128
WIRE 272 240 272 112
WIRE 272 240 128 240
WIRE 384 240 384 128
WIRE 384 240 272 240
WIRE -208 256 -208 240
WIRE 272 256 272 240
FLAG -208 256 0
FLAG -400 16 0
FLAG 272 256 0
FLAG -480 -64 IN
FLAG 384 -64 out
SYMBOL cap 256 48 R0
SYMATTR InstName Co
SYMATTR Value 4.7µ
SYMBOL res 368 32 R0
SYMATTR InstName Ro
SYMATTR Value 50
SYMBOL voltage -352 96 R0
WINDOW 123 0 0 Left 2
WINDOW 39 0 0 Left 2
SYMATTR InstName Clock
SYMATTR Value PULSE(0 5 0 0.1u 0.1u 5u 10.2u)
SYMBOL voltage -528 32 R0
WINDOW 123 0 0 Left 2
WINDOW 39 0 0 Left 2
SYMATTR InstName Vi
SYMATTR Value 12
SYMBOL sw -432 -64 R270
SYMATTR InstName S
SYMATTR Value MySwitch
SYMBOL diode 160 -80 M90
WINDOW 0 0 32 VBottom 2
WINDOW 3 32 32 VTop 2
SYMATTR InstName D
SYMATTR Value MyDiode
SYMBOL ind2 64 144 R180
WINDOW 0 36 80 Left 2
WINDOW 3 36 40 Left 2
SYMATTR InstName L1
SYMATTR Value 100µ
SYMBOL ind2 112 32 R0
SYMATTR InstName L2
SYMATTR Value 900µ
TEXT -376 336 Left 2 !.tran 10ms
TEXT -376 368 Left 2 !.model MySwitch SW (Ron=0.1 Roff=100Meg Vt=1)
TEXT -376 400 Left 2 !.model MyDiode D(Ron=0.1 Roff=100Meg Vfwd=0)
TEXT -96 16 Left 2 !K1 L1  L2 1
TEXT -376 432 Left 2 !.meas Pout AVG V(out)*I(Ro)\n.meas Pin AVG V(IN)*I(Vi)\n.meas eff param -Pout/Pin
TEXT -832 296 Left 2 ;il valoro di uscita non è 36 ma è un po piu basso per il fatto di aver messo nello switch un valore di resistenza differente da 0
