Version 4
SHEET 1 2116 872
WIRE -368 -496 -608 -496
WIRE 784 -496 -368 -496
WIRE 928 -496 784 -496
WIRE 1072 -496 928 -496
WIRE 784 -480 784 -496
WIRE 1408 -480 1280 -480
WIRE 1584 -480 1472 -480
WIRE 1776 -480 1584 -480
WIRE 2000 -480 1776 -480
WIRE 928 -464 928 -496
WIRE -368 -400 -368 -496
WIRE 320 -400 192 -400
WIRE 2000 -384 2000 -480
WIRE 320 -368 320 -400
WIRE 784 -368 784 -400
WIRE 880 -368 784 -368
WIRE 928 -368 928 -400
WIRE 928 -368 880 -368
WIRE 1072 -336 1072 -496
WIRE 1280 -336 1280 -480
WIRE -16 -320 -160 -320
WIRE 880 -304 880 -368
WIRE 448 -288 416 -288
WIRE 560 -288 512 -288
WIRE -160 -256 -160 -320
WIRE 560 -256 560 -288
WIRE 320 -240 320 -288
WIRE 1584 -224 1584 -480
WIRE 1776 -224 1776 -480
WIRE 880 -192 880 -240
WIRE 1072 -192 1072 -256
WIRE 1072 -192 880 -192
WIRE 1088 -192 1088 -208
WIRE 1088 -192 1072 -192
WIRE 2000 -176 2000 -304
WIRE 2112 -176 2000 -176
WIRE -160 -128 -160 -176
WIRE 192 -128 192 -400
WIRE 560 -112 560 -176
WIRE 992 -96 912 -96
WIRE 2000 -96 2000 -176
WIRE -16 -80 -16 -320
WIRE 32 -80 -16 -80
WIRE 416 -80 416 -288
WIRE 416 -80 352 -80
WIRE 992 -48 992 -96
WIRE 560 0 560 -32
WIRE 912 0 912 -96
WIRE -608 16 -608 -496
WIRE -112 16 -160 16
WIRE 32 16 -48 16
WIRE 416 16 352 16
WIRE -160 32 -160 16
WIRE 416 32 416 16
WIRE 432 112 352 112
WIRE 544 112 496 112
WIRE 1072 128 1072 -192
WIRE 1280 128 1280 -256
WIRE 1552 128 1552 112
WIRE 1552 128 1280 128
WIRE 1584 128 1584 -160
WIRE 1584 128 1552 128
WIRE 1776 128 1776 -144
WIRE 1776 128 1584 128
WIRE 2000 128 2000 -16
WIRE 2000 128 1776 128
WIRE 544 144 544 112
WIRE 1552 160 1552 128
WIRE 0 208 -144 208
WIRE 32 208 0 208
WIRE 704 208 352 208
WIRE 912 208 912 80
WIRE 912 208 784 208
WIRE 1024 208 912 208
WIRE -144 240 -144 208
WIRE 0 304 0 208
WIRE 32 304 0 304
WIRE 640 304 352 304
WIRE 560 336 368 336
WIRE -144 352 -144 304
WIRE 0 400 0 304
WIRE 32 400 0 400
WIRE 368 400 368 336
WIRE 368 400 352 400
WIRE 400 400 368 400
WIRE 512 400 464 400
WIRE 560 416 560 336
WIRE 640 464 640 304
WIRE 800 464 640 464
WIRE 880 464 800 464
WIRE 1072 464 1072 224
WIRE 1072 464 960 464
WIRE 32 496 -144 496
WIRE 368 496 352 496
WIRE 400 496 368 496
WIRE 512 496 512 400
WIRE 512 496 480 496
WIRE 1072 512 1072 464
WIRE -144 544 -144 496
WIRE 368 544 368 496
WIRE 560 544 560 480
WIRE 560 544 368 544
WIRE 800 544 800 464
WIRE -608 720 -608 96
WIRE -368 720 -368 -336
WIRE -368 720 -608 720
WIRE -144 720 -144 624
WIRE -144 720 -368 720
WIRE 192 720 192 544
WIRE 192 720 -144 720
WIRE 800 720 800 608
WIRE 800 720 192 720
WIRE 1072 720 1072 592
WIRE 1072 720 800 720
WIRE 192 784 192 720
WIRE 368 800 368 544
WIRE 736 800 368 800
WIRE 2112 800 2112 -176
WIRE 2112 800 816 800
FLAG 320 -240 0
FLAG -144 352 0
FLAG -160 32 0
FLAG 544 144 0
FLAG 992 -48 0
FLAG 1552 160 0
FLAG 192 784 0
FLAG 416 32 0
FLAG 560 0 0
FLAG -160 -128 0
SYMBOL PowerProducts\\LT3799 192 208 R0
SYMATTR InstName U1
SYMBOL voltage 320 -384 R0
WINDOW 3 -322 -49 Left 2
WINDOW 123 0 0 Left 2
WINDOW 39 0 0 Left 2
SYMATTR InstName V1
SYMATTR Value PWL(0 0 100u 25 200u 25 201u 14)
SYMBOL cap -160 240 R0
SYMATTR InstName C1
SYMATTR Value 100n
SYMATTR SpiceLine Rser=0.03
SYMBOL cap -48 0 R90
WINDOW 0 0 32 VBottom 2
WINDOW 3 32 32 VTop 2
SYMATTR InstName C2
SYMATTR Value 10n
SYMATTR SpiceLine Rser=0.03
SYMBOL cap 496 96 R90
WINDOW 0 0 32 VBottom 2
WINDOW 3 32 32 VTop 2
SYMATTR InstName C3
SYMATTR Value 1µ
SYMATTR SpiceLine Rser=0.03
SYMBOL cap 464 384 R90
WINDOW 0 0 32 VBottom 2
WINDOW 3 32 32 VTop 2
SYMATTR InstName C4
SYMATTR Value 10n
SYMATTR SpiceLine Rser=0.03
SYMBOL nmos 1024 128 R0
SYMATTR InstName M1
SYMATTR Value STW11NM80
SYMBOL res 1056 496 R0
SYMATTR InstName R3
SYMATTR Value 0.04
SYMBOL res 976 448 R90
WINDOW 0 0 56 VBottom 2
WINDOW 3 32 56 VTop 2
SYMATTR InstName R4
SYMATTR Value 330
SYMBOL cap 784 544 R0
SYMATTR InstName C5
SYMATTR Value 330p
SYMATTR SpiceLine Rser=0.03
SYMBOL res 800 192 R90
WINDOW 0 0 56 VBottom 2
WINDOW 3 32 56 VTop 2
SYMATTR InstName R5
SYMATTR Value 4r7
SYMBOL res 896 -16 R0
SYMATTR InstName R6
SYMATTR Value 10k
SYMBOL ind2 1056 -352 R0
SYMATTR InstName L1
SYMATTR Value 300µ
SYMATTR Type ind
SYMATTR SpiceLine Rser=0.01
SYMBOL ind2 1296 -240 R180
WINDOW 0 36 80 Left 2
WINDOW 3 36 40 Left 2
SYMATTR InstName L2
SYMATTR Value 37.4µ
SYMATTR Type ind
SYMATTR SpiceLine Rser=0.01
SYMBOL diode 1408 -464 R270
WINDOW 0 32 32 VTop 2
WINDOW 3 0 32 VBottom 2
SYMATTR InstName D5
SYMATTR Value RFN5TF8S
SYMBOL cap 1568 -224 R0
SYMATTR InstName C6
SYMATTR Value 47µ
SYMATTR SpiceLine Rser=0.03
SYMBOL res 1760 -240 R0
SYMATTR InstName R7
SYMATTR Value 12
SYMBOL res 496 480 R90
WINDOW 0 0 56 VBottom 2
WINDOW 3 32 56 VTop 2
SYMATTR InstName R8
SYMATTR Value 2k2
SYMBOL cap 544 416 R0
SYMATTR InstName C7
SYMATTR Value 100p
SYMATTR SpiceLine Rser=0.03
SYMBOL res 1984 -400 R0
SYMATTR InstName R9
SYMATTR Value 22500
SYMBOL res 1984 -112 R0
SYMATTR InstName R10
SYMATTR Value 1500
SYMBOL res 832 784 R90
WINDOW 0 0 56 VBottom 2
WINDOW 3 32 56 VTop 2
SYMATTR InstName R11
SYMATTR Value 22k
SYMBOL voltage -144 528 R0
WINDOW 123 0 0 Left 2
WINDOW 39 24 124 Left 2
SYMATTR InstName V3
SYMATTR Value 1.5
SYMATTR SpiceLine Rser=0.01
SYMBOL voltage 560 -128 R0
WINDOW 123 0 0 Left 2
WINDOW 39 24 44 Left 2
SYMATTR InstName V4
SYMATTR Value PULSE(-3 3 0 10n 10n 5u 10u)
SYMATTR SpiceLine Rser=0.01
SYMBOL cap -384 -400 R0
SYMATTR InstName C8
SYMATTR Value 10µ
SYMATTR SpiceLine Rser=0.03
SYMBOL voltage -608 0 R0
WINDOW 123 0 0 Left 2
WINDOW 39 24 44 Left 2
SYMATTR InstName V2
SYMATTR Value 280
SYMATTR SpiceLine Rser=0.01
SYMBOL diode 896 -240 R180
WINDOW 0 24 64 Left 2
WINDOW 3 24 0 Left 2
SYMATTR InstName D1
SYMATTR Value RFN5TF8S
SYMBOL res 768 -496 R0
SYMATTR InstName R12
SYMATTR Value 33k
SYMBOL cap 912 -464 R0
SYMATTR InstName C9
SYMATTR Value 3n3
SYMATTR SpiceLine Rser=0.01
SYMBOL voltage -160 -272 R0
WINDOW 123 0 0 Left 2
WINDOW 39 24 44 Left 2
SYMATTR InstName V5
SYMATTR Value 1
SYMATTR SpiceLine Rser=0.01
SYMBOL res 576 -160 R180
WINDOW 0 36 76 Left 2
WINDOW 3 36 40 Left 2
SYMATTR InstName R1
SYMATTR Value 10k
SYMBOL diode 512 -304 R90
WINDOW 0 0 32 VBottom 2
WINDOW 3 32 32 VTop 2
SYMATTR InstName D2
SYMATTR Value 1N4148
TEXT 1088 -600 Left 5 !K L1 L2 1
TEXT -642 852 Left 2 !.tran 0 30m 0 startup
