Version 4
SHEET 1 4756 5888
WIRE 1136 944 976 944
WIRE 976 992 976 944
WIRE 1136 992 1136 944
WIRE 448 1136 -848 1136
WIRE 528 1136 448 1136
WIRE 640 1136 528 1136
WIRE 800 1136 640 1136
WIRE 976 1152 976 1072
WIRE 976 1152 944 1152
WIRE 1024 1152 976 1152
WIRE 1136 1152 1136 1056
WIRE 1136 1152 1088 1152
WIRE 1200 1152 1136 1152
WIRE 1344 1152 1200 1152
WIRE 1568 1152 1344 1152
WIRE 1840 1152 2016 1120
WIRE 1840 1152 1568 1152
WIRE 448 1168 448 1136
WIRE 448 1264 448 1232
WIRE 528 1376 528 1136
WIRE 640 1376 640 1136
WIRE 528 1488 528 1456
WIRE 608 1488 528 1488
WIRE 640 1488 640 1440
WIRE 640 1488 608 1488
WIRE 800 1520 800 1136
WIRE 944 1520 944 1152
WIRE -848 1536 -848 1136
WIRE 608 1552 608 1488
WIRE 1200 1648 1200 1152
WIRE 1568 1696 1568 1152
WIRE -400 1712 -624 1712
WIRE 144 1712 -400 1712
WIRE 608 1728 608 1616
WIRE 800 1728 800 1600
WIRE 800 1728 608 1728
WIRE -400 1744 -400 1712
WIRE 1344 1744 1344 1152
WIRE 1456 1744 1344 1744
WIRE 1456 1776 1456 1744
WIRE -624 1792 -624 1712
WIRE -96 1792 -240 1792
WIRE 1344 1808 1344 1744
WIRE -240 1824 -240 1792
WIRE -96 1824 -96 1792
WIRE -400 1840 -400 1808
WIRE 1456 1872 1456 1840
WIRE -624 1920 -624 1872
WIRE -240 1936 -240 1904
WIRE -208 1936 -240 1936
WIRE -96 1936 -96 1888
WIRE -96 1936 -144 1936
WIRE 144 1952 144 1712
WIRE 800 1968 800 1728
WIRE 1344 1984 1344 1888
WIRE 1344 1984 1264 1984
WIRE 1456 1984 1456 1952
WIRE 1456 1984 1344 1984
WIRE -416 2016 -464 2016
WIRE -96 2016 -96 1936
WIRE -96 2016 -336 2016
WIRE -16 2016 -96 2016
WIRE 576 2048 304 2048
WIRE 688 2048 656 2048
WIRE 752 2048 688 2048
WIRE -240 2080 -240 1936
WIRE -16 2080 -240 2080
WIRE -64 2144 -192 2144
WIRE -16 2144 -64 2144
WIRE -192 2176 -192 2144
WIRE 432 2176 304 2176
WIRE -16 2208 -112 2208
WIRE 432 2240 432 2176
WIRE 480 2240 432 2240
WIRE 800 2240 800 2064
WIRE 800 2240 560 2240
WIRE 432 2288 432 2240
WIRE 688 2288 688 2048
WIRE 800 2288 800 2240
WIRE -192 2304 -192 2256
WIRE -112 2304 -112 2208
WIRE -112 2304 -192 2304
WIRE 1344 2304 1344 1984
WIRE -192 2320 -192 2304
WIRE -64 2320 -64 2144
WIRE -848 2432 -848 1616
WIRE -192 2432 -192 2384
WIRE -192 2432 -848 2432
WIRE -64 2432 -64 2384
WIRE -64 2432 -192 2432
WIRE 144 2432 144 2272
WIRE 144 2432 -64 2432
WIRE 432 2432 432 2352
WIRE 432 2432 144 2432
WIRE 688 2432 688 2368
WIRE 688 2432 432 2432
WIRE 800 2432 800 2368
WIRE 800 2432 688 2432
WIRE 944 2432 944 1600
WIRE 944 2432 800 2432
WIRE 1200 2432 1200 1712
WIRE 1200 2432 944 2432
WIRE 1344 2432 1344 2384
WIRE 1344 2432 1200 2432
WIRE 1568 2432 1568 1776
WIRE 1568 2432 1344 2432
WIRE 144 2448 144 2432
WIRE -464 2544 -464 2016
WIRE 1264 2544 1264 1984
WIRE 1264 2544 -464 2544
FLAG 144 2448 0
FLAG 448 1264 0
FLAG 2016 1120 VOUT
FLAG -400 1840 0
FLAG -624 1920 0
SYMBOL cap -208 2320 R0
SYMATTR InstName C15
SYMATTR Value 3.05n
SYMATTR SpiceLine Rser=0.03
SYMBOL res -208 2160 R0
SYMATTR InstName R24
SYMATTR Value 3000
SYMBOL cap -80 2320 R0
SYMATTR InstName C16
SYMATTR Value 1µ
SYMATTR SpiceLine Rser=0.03
SYMBOL res 464 2256 R270
WINDOW 0 32 56 VTop 2
WINDOW 3 0 56 VBottom 2
SYMATTR InstName R25
SYMATTR Value 510
SYMBOL cap 416 2288 R0
SYMATTR InstName C17
SYMATTR Value 220p
SYMATTR SpiceLine Rser=0.03
SYMBOL nmos 752 1968 R0
WINDOW 3 -99 -21 Left 2
SYMATTR Value STW11NM80
SYMATTR InstName M2
SYMBOL res 560 2064 R270
WINDOW 0 32 56 VTop 2
WINDOW 3 0 56 VBottom 2
SYMATTR InstName R28
SYMATTR Value 1
SYMBOL res 784 2272 R0
SYMATTR InstName R29
SYMATTR Value 0.4
SYMBOL res 672 2272 R0
SYMATTR InstName R30
SYMATTR Value 33k
SYMBOL ind2 784 1504 R0
WINDOW 0 -42 2 Left 2
WINDOW 3 -59 -29 Left 2
SYMATTR InstName L3
SYMATTR Value 220µ
SYMATTR Type ind
SYMATTR SpiceLine Rser=0.01
SYMBOL ind2 960 1616 R180
WINDOW 0 -24 150 Left 2
WINDOW 3 -58 114 Left 2
SYMATTR InstName L4
SYMATTR Value 97µ
SYMATTR Type ind
SYMATTR SpiceLine Rser=0.01
SYMBOL schottky 1024 1168 R270
WINDOW 0 32 32 VTop 2
WINDOW 3 0 32 VBottom 2
SYMATTR InstName D2
SYMATTR Value MBRS1100
SYMATTR Description Diode
SYMATTR Type diode
SYMBOL cap 1184 1648 R0
SYMATTR InstName C18
SYMATTR Value 22µ
SYMATTR SpiceLine Rser=0.01
SYMBOL cap 432 1168 R0
SYMATTR InstName C19
SYMATTR Value 3µ3
SYMATTR SpiceLine Rser=0.03
SYMBOL res 1328 2288 R0
SYMATTR InstName R31
SYMATTR Value 2500
SYMBOL res 1328 1792 R0
SYMATTR InstName R32
SYMATTR Value 45500
SYMBOL cap 1440 1776 R0
SYMATTR InstName C20
SYMATTR Value 22n
SYMATTR SpiceLine Rser=0.03
SYMBOL res 1440 1856 R0
SYMATTR InstName R33
SYMATTR Value 10k
SYMBOL res 1552 1680 R0
SYMATTR InstName R34
SYMATTR Value 48
SYMBOL res -256 1808 R0
SYMATTR InstName R35
SYMATTR Value 4k7
SYMBOL cap -112 1824 R0
SYMATTR InstName C21
SYMATTR Value 4n7
SYMATTR SpiceLine Rser=0.03
SYMBOL res -320 2000 R90
WINDOW 0 0 56 VBottom 2
WINDOW 3 32 56 VTop 2
SYMATTR InstName R36
SYMATTR Value 10k
SYMBOL cap -144 1920 R90
WINDOW 0 0 32 VBottom 2
WINDOW 3 32 32 VTop 2
SYMATTR InstName C22
SYMATTR Value 470p
SYMATTR SpiceLine Rser=0.03
SYMBOL cap -416 1744 R0
SYMATTR InstName C1
SYMATTR Value 10µ
SYMATTR SpiceLine Rser=0.03
SYMBOL res 960 976 R0
SYMATTR InstName R5
SYMATTR Value 100
SYMBOL cap 1120 992 R0
SYMATTR InstName C3
SYMATTR Value 100p
SYMATTR SpiceLine Rser=0.03
SYMBOL diode 624 1616 R180
WINDOW 0 24 64 Left 2
WINDOW 3 24 0 Left 2
SYMATTR InstName D10
SYMATTR Value UPSC600
SYMBOL cap 624 1376 R0
SYMATTR InstName C4
SYMATTR Value 2n2
SYMATTR SpiceLine Rser=0.03
SYMBOL res 512 1360 R0
SYMATTR InstName R6
SYMATTR Value 33k
SYMBOL voltage -624 1776 R0
WINDOW 123 0 0 Left 2
WINDOW 39 0 0 Left 2
SYMATTR InstName V1
SYMATTR Value 10
SYMBOL voltage -848 1520 R0
WINDOW 123 0 0 Left 2
WINDOW 39 24 124 Left 2
SYMATTR SpiceLine Rser=0.01
SYMATTR InstName V2
SYMATTR Value 110
SYMBOL PowerProducts\\LT1241 144 2112 R0
SYMATTR InstName U1
TEXT 1248 952 Left 2 ;Higher voltage & current\ndiode would be\nused.
TEXT 1576 1200 Left 5 ;Vout=48V
TEXT 1280 2776 Left 2 !.tran 0 230m 0 startup
TEXT -480 1648 Left 3 ;Bias rail\ncapacitor
TEXT -312 1736 Left 4 ;BIAS RAIL
TEXT -728 1176 Left 5 ;DC BUS\n(140VDC to 340vdc)
TEXT -680 824 Left 7 ;OFFLINE FLYBACK SMPS DCM
TEXT 1584 1656 Left 5 ;LOAD
TEXT 640 1040 Left 4 !K L3 L4 0.99
TEXT 112 1336 Left 4 ;Add TVS for startup\nand transients
TEXT 1008 1256 Left 2 ;Look at the\ndiode voltage\nspike at maximum\nvin
TEXT 1680 1512 Left 5 ;iout = 1A
LINE Normal 736 1648 736 1648 2
LINE Normal 736 1648 736 1648 2
LINE Normal 736 1648 736 1648 2
LINE Normal 880 1648 880 1456 2
